OPT_V8/My_Campus_24/powerflow_results_t13.txt
Pandapower Network Debug Info
==================================================

BUS:
       vm_pu  va_degree      p_mw    q_mvar
0   0.998956   0.390834 -0.001822  0.001079
1   0.998656   0.620365 -0.001978  0.001967
2   0.997811   0.789228 -0.000998  0.002469
3   0.997267   0.592601 -0.000984  0.004487
4   0.993869   0.546724 -0.000370  0.005927
5   0.997584   0.406101 -0.000625  0.005850
6   0.998512   0.538815 -0.001949  0.001130
7   0.999588   0.119603 -0.001193  0.002014
8   0.999104   0.110338 -0.002152  0.002728
9   0.999915   0.002131  0.004713  0.011023
10  0.999903   0.002233  0.007618  0.009838
11  0.999894   0.002269  0.010778  0.009671
12  0.999840   0.005566  0.009042  0.006406
13  0.999817   0.006175  0.007018  0.011949
14  0.999825   0.005994  0.008504  0.013396
15  0.999951   0.001576  0.000000  0.000000
16  0.999951   0.001582  0.000000  0.000000
17  0.999845   0.005579  0.000000  0.000000
18  0.999845   0.005589  0.000000  0.000000
19  1.000000   0.000000 -0.017450 -0.045613
20  1.000000   0.000006  0.000000  0.000000
21  1.000000   0.000000 -0.018411 -0.054491
22  1.000000   0.000008  0.000000  0.000000
--------------------------------------------------

LINE:
    p_from_mw  q_from_mvar   p_to_mw  q_to_mvar         pl_mw       ql_mvar  i_from_ka   i_to_ka      i_ka  vm_from_pu  va_from_degree  vm_to_pu  va_to_degree  loading_percent
0    0.017440     0.041613 -0.017438  -0.041612  1.991321e-06  1.552665e-06   0.001737  0.001737  0.001737    1.000000        0.000006  0.999951      0.001576         0.755078
1    0.018401     0.050491 -0.018394  -0.050485  7.768249e-06  6.057031e-06   0.002068  0.002068  0.002068    1.000000        0.000008  0.999845      0.005579         0.899325
2    0.023110     0.030533 -0.023109  -0.030532  1.133999e-06  8.841975e-07   0.001474  0.001474  0.001474    0.999951        0.001576  0.999915      0.002131         0.640852
3    0.009042     0.006406 -0.009042  -0.006406  4.247796e-08  3.312076e-08   0.000427  0.000427  0.000427    0.999845        0.005579  0.999840      0.005566         0.185471
4    0.015522     0.025345 -0.015522  -0.025345  4.831402e-07  3.767123e-07   0.001144  0.001144  0.001144    0.999845        0.005579  0.999825      0.005994         0.497445
5   -0.005682     0.010079  0.005744  -0.010030  6.261938e-05  4.882536e-05   0.016701  0.016701  0.016701    0.999951        0.001582  0.998956      0.390834         7.261272
6   -0.002526     0.007017  0.002569  -0.006984  4.316672e-05  3.365780e-05   0.010766  0.010766  0.010766    0.999845        0.005589  0.997584      0.406101         4.681083
7   -0.001189     0.002017  0.001193  -0.002014  3.703727e-06  2.887857e-06   0.003379  0.003379  0.003379    0.999845        0.005589  0.999588      0.119603         1.469345
8   -0.002465     0.008700  0.002479  -0.008689  1.406297e-05  1.096513e-05   0.013054  0.013054  0.013054    0.999845        0.005589  0.999104      0.110338         5.675508
9   -0.018395    -0.019509  0.018396   0.019509  2.486957e-07  1.939121e-07   0.001032  0.001032  0.001032    0.999903        0.002233  0.999915      0.002131         0.448774
10  -0.010778    -0.009671  0.010778   0.009671  1.025711e-07  7.997640e-08   0.000557  0.000557  0.000557    0.999894        0.002269  0.999903      0.002233         0.242353
11   0.007018     0.011949 -0.007018  -0.011949  9.394448e-08  7.325006e-08   0.000533  0.000533  0.000533    0.999825        0.005994  0.999817      0.006175         0.231938
12   0.002969    -0.004440 -0.002952   0.004453  1.692459e-05  1.319638e-05   0.007720  0.007720  0.007720    0.998656        0.620365  0.998956      0.390834         3.356506
13   0.000984    -0.004487 -0.000970   0.004498  1.416566e-05  1.104520e-05   0.006648  0.006648  0.006648    0.997267        0.592601  0.998956      0.390834         2.890575
14   0.000998    -0.002469 -0.000991   0.002474  6.441123e-06  5.022250e-06   0.003852  0.003852  0.003852    0.997811        0.789228  0.998656      0.620365         1.674579
15  -0.000326     0.005961  0.000370  -0.005927  4.344501e-05  3.387479e-05   0.008625  0.008625  0.008625    0.999104        0.110338  0.993869      0.546724         3.749904
16   0.001949    -0.001130 -0.001945   0.001134  4.433119e-06  3.456576e-06   0.003257  0.003257  0.003257    0.998512        0.538815  0.997584      0.406101         1.416092
--------------------------------------------------

TRAFO:
    p_hv_mw  q_hv_mvar   p_lv_mw  q_lv_mvar    pl_mw  ql_mvar   i_hv_ka   i_lv_ka  vm_hv_pu  va_hv_degree  vm_lv_pu  va_lv_degree  loading_percent
0 -0.005672   0.011079  0.005682  -0.010079  0.00001    0.001  0.000479  0.016701  0.999951      0.001576  0.999951      0.001582         0.124469
1 -0.006170   0.018733  0.006180  -0.017734  0.00001    0.001  0.000759  0.027111  0.999845      0.005579  0.999845      0.005589         0.197264
2  0.017450   0.045613 -0.017440  -0.041613  0.00001    0.004  0.000403  0.001737  1.000000      0.000000  1.000000      0.000006         0.122094
3  0.018411   0.054491 -0.018401  -0.050491  0.00001    0.004  0.000474  0.002068  1.000000      0.000000  1.000000      0.000008         0.143794
--------------------------------------------------
